Test_Network/condensed/network_10/Feeder_6/Lines.txt
New Line.LINE63 Bus1=63 Bus2=64 phases=3 Linecode=25_SAC_XC Length=7.0492 Units=m
New Line.LINECmpd_0 Bus1=227 Bus2=286 phases=3 Linecode=3c_.06 Length=17.780656 Units=m
New Line.LINECmpd_1 Bus1=216 Bus2=227 phases=3 Linecode=4c_.25 Length=21.86348 Units=m
New Line.LINECmpd_2 Bus1=429 Bus2=459 phases=3 Linecode=4_PSC Length=6.657766 Units=m
New Line.LINECmpd_3 Bus1=338 Bus2=442 phases=3 Linecode=2c_.007 Length=15.089282 Units=m
New Line.LINECmpd_4 Bus1=1 Bus2=27 phases=3 Linecode=3c_300_SAC_XC Length=31.928292 Units=m
New Line.LINECmpd_5 Bus1=33 Bus2=63 phases=3 Linecode=4c_.5 Length=57.116215 Units=m
New Line.LINECmpd_6 Bus1=63 Bus2=187 phases=3 Linecode=4c_.5 Length=101.215303 Units=m
New Line.LINECmpd_7 Bus1=301 Bus2=387 phases=3 Linecode=4c_.25 Length=34.04433 Units=m
New Line.LINECmpd_8 Bus1=227 Bus2=295 phases=3 Linecode=4c_.25 Length=14.168687 Units=m
New Line.LINECmpd_9 Bus1=27 Bus2=33 phases=3 Linecode=4c_300_SAC Length=5.95843 Units=m
New Line.LINECmpd_10 Bus1=295 Bus2=338 phases=3 Linecode=3c_300_ASN Length=3.130674 Units=m
New Line.LINECmpd_11 Bus1=387 Bus2=429 phases=3 Linecode=4c_300 Length=3.23501 Units=m
New Line.LINECmpd_12 Bus1=194 Bus2=216 phases=3 Linecode=4c_.5 Length=7.11228 Units=m
New Line.LINECmpd_13 Bus1=301 Bus2=367 phases=3 Linecode=25_SAC_XC Length=10.65744 Units=m
New Line.LINECmpd_14 Bus1=187 Bus2=194 phases=3 Linecode=4c_.25 Length=2.60001 Units=m
New Line.LINECmpd_15 Bus1=295 Bus2=301 phases=3 Linecode=4c_.25 Length=4.5553 Units=m
